data/simple-eu.uct
##C 2007.05.01
Generated by powsybl, 2021-06-05T22:56:17.145+02:00
Case date: 2014-01-16T08:30:00.000+01:00
##N
##ZBE
BBE1AA1               0 2 400.00 3000.00 0.00000 -1500.0 0.00000 0.00000 -9000.0 9000.00 -9000.0                               F
BBE2AA1               0 2 400.00 1000.00 0.00000 -3000.0 0.00000 0.00000 -9000.0 9000.00 -9000.0                               F
BBE3AA1               0 2 400.00 1500.00 0.00000 -2500.0 0.00000 0.00000 -9000.0 9000.00 -9000.0                               F
##ZDE
DDE1AA1               0 2 400.00 3500.00 0.00000 -2500.0 0.00000 0.00000 -9000.0 9000.00 -9000.0                               F
DDE2AA1               0 2 400.00 3000.00 0.00000 -2000.0 0.00000 0.00000 -9000.0 9000.00 -9000.0                               F
DDE3AA1               0 2 400.00 2000.00 0.00000 -1500.0 0.00000 0.00000 -9000.0 9000.00 -9000.0                               F
##ZFR
FFR1AA1               0 2 400.00 1000.00 0.00000 -2000.0 0.00000 0.00000 -9000.0 9000.00 -9000.0                               F
FFR2AA1               0 2 400.00 3500.00 0.00000 -2000.0 0.00000 0.00000 -9000.0 9000.00 -9000.0                               F
FFR3AA1               0 2 400.00 1500.00 0.00000 -3000.0 0.00000 0.00000 -9000.0 9000.00 -9000.0                               F
##ZNL
NNL1AA1               0 2 400.00 1000.00 0.00000 -1500.0 0.00000 0.00000 -9000.0 9000.00 -9000.0                               F
NNL2AA1               0 2 400.00 1000.00 0.00000 -500.00 0.00000 0.00000 -9000.0 9000.00 -9000.0                               F
NNL3AA1               0 2 400.00 2500.00 0.00000 -2500.0 0.00000 0.00000 -9000.0 9000.00 -9000.0                               F
##L
BBE1AA1  BBE2AA1  1 0 0.0000 10.000 0.000000   5000
BBE1AA1  BBE3AA1  1 0 0.0000 10.000 0.000000   5000
BBE2AA1  BBE3AA1  1 0 0.0000 10.000 0.000000   5000
BBE2AA1  FFR3AA1  1 0 0.0000 10.000 0.000000   5000
DDE1AA1  DDE2AA1  1 0 0.0000 10.000 0.000000   5000
DDE1AA1  DDE3AA1  1 0 0.0000 10.000 0.000000   5000
DDE2AA1  DDE3AA1  1 0 0.0000 10.000 0.000000   5000
DDE2AA1  NNL3AA1  1 0 0.0000 10.000 0.000000   5000
FFR1AA1  FFR2AA1  1 0 0.0000 10.000 0.000000   5000
FFR1AA1  FFR3AA1  1 0 0.0000 10.000 0.000000   5000
FFR2AA1  DDE3AA1  1 0 0.0000 10.000 0.000000   5000
FFR2AA1  FFR3AA1  1 0 0.0000 10.000 0.000000   5000
NNL1AA1  NNL2AA1  1 0 0.0000 10.000 0.000000   5000
NNL1AA1  NNL3AA1  1 0 0.0000 10.000 0.000000   5000
NNL2AA1  BBE3AA1  1 0 0.0000 10.000 0.000000   5000
NNL2AA1  NNL3AA1  1 0 0.0000 10.000 0.000000   5000
##T
BBE1AA1  BBE3AA1  2 0 400.0 400.0       0.2080 25.500 -2.16250 1.0625   1227
FFR1AA1  FFR2AA1  2 0 400.0 400.0       0.0867 13.988 -2.32750 1.2216   2329
##R
BBE1AA1  BBE3AA1  2                    1.626 90.00 33   5       SYMM
FFR1AA1  FFR2AA1  2                    2.568 90.00 17  -5       SYMM
